------- AERODYN v15 for OpenFAST INPUT FILE -----------------------------------------------
UNIFI 50kW Reference SWT.
======  General Options  ============================================================================
   True            Echo               - Echo the input to "<rootname>.AD.ech"?  (flag)
   "default"       DTAero             - Time interval for aerodynamic calculations {or "default"} (s)
   1               WakeMod            - Type of wake/induction model (switch) {0=none, 1=BEMT, 2=DBEMT, 3=OLAF}  [WakeMod cannot be 2 or 3 when linearizing]
   2               AFAeroMod          - Type of blade airfoil aerodynamics model (switch) {1=steady model, 2=Beddoes-Leishman unsteady model} [AFAeroMod must be 1 when linearizing]
   2               TwrPotent          - Type tower influence on wind based on potential flow around the tower (switch) {0=none, 1=baseline potential flow, 2=potential flow with Bak correction}
   False           TwrShadow          - Calculate tower influence on wind based on downstream tower shadow? (flag)
   True            TwrAero            - Calculate tower aerodynamic loads? (flag)
   False           FrozenWake         - Assume frozen wake during linearization? (flag) [used only when WakeMod=1 and when linearizing]
   False           CavitCheck         - Perform cavitation check? (flag) [AFAeroMod must be 1 when CavitCheck=true]
   False           CompAA             - Flag to compute AeroAcoustics calculation [only used when WakeMod=1 or 2]
   "AeroAcousticsInput\AeroAcousticsInput.dat"         AA_InputFile       - Aeroacoustics input file
======  Environmental Conditions  ===================================================================
   1.225           AirDens            - Air density (kg/m^3)
   1.6468e-5       KinVisc            - Kinematic air viscosity (m^2/s)
   343             SpdSound           - Speed of sound (m/s)
   103500          Patm               - Atmospheric pressure (Pa) [used only when CavitCheck=True]
   1700            Pvap               - Vapour pressure of fluid (Pa) [used only when CavitCheck=True]
   0.1             FluidDepth         - Water depth above mid-hub height (m) [used only when CavitCheck=True]
======  Blade-Element/Momentum Theory Options  ====================================================== [unused when WakeMod=0]
   2               SkewMod            - Type of skewed-wake correction model (switch) {1=uncoupled, 2=Pitt/Peters, 3=coupled} [unused when WakeMod=0]
   "default"       SkewModFactor      - Constant used in Pitt/Peters skewed wake model {or "default" is 15/32*pi} (-) [used only when SkewMod=2; unused when WakeMod=0]
   True            TipLoss            - Use the Prandtl tip-loss model? (flag) [unused when WakeMod=0]
   True            HubLoss            - Use the Prandtl hub-loss model? (flag) [unused when WakeMod=0]
   True            TanInd             - Include tangential induction in BEMT calculations? (flag) [unused when WakeMod=0]
   True            AIDrag             - Include the drag term in the axial-induction calculation? (flag) [unused when WakeMod=0]
   True            TIDrag             - Include the drag term in the tangential-induction calculation? (flag) [unused when WakeMod=0 or TanInd=FALSE]
   "default"       IndToler           - Convergence tolerance for BEMT nonlinear solve residual equation {or "default"} (-) [unused when WakeMod=0]
   100             MaxIter            - Maximum number of iteration steps (-) [unused when WakeMod=0]
======  Dynamic Blade-Element/Momentum Theory Options  ============================================== [used only when WakeMod=2]
   2               DBEMT_Mod          - Type of dynamic BEMT (DBEMT) model {1=constant tau1, 2=time-dependent tau1} (-) [used only when WakeMod=2]
   4.0             tau1_const         - Time constant for DBEMT (s) [used only when WakeMod=2 and DBEMT_Mod=1]
======  OLAF -- cOnvecting LAgrangian Filaments (Free Vortex Wake) Theory Options  ================== [used only when WakeMod=3]
   "unused"      OLAFInputFileName    - Input file for OLAF [used only when WakeMod=3]
======  Beddoes-Leishman Unsteady Airfoil Aerodynamics Options  ===================================== [used only when AFAeroMod=2]
   2               UAMod              - Unsteady Aero Model Switch (switch) {1=Baseline model (Original), 2=Gonzalez's variant (changes in Cn,Cc,Cm), 3=Minemma/Pierce variant (changes in Cc and Cm)} [used only when AFAeroMod=2]
   True            FLookup            - Flag to indicate whether a lookup for f' will be calculated (TRUE) or whether best-fit exponential equations will be used (FALSE); if FALSE S1-S4 must be provided in airfoil input files (flag) [used only when AFAeroMod=2]
======  Airfoil Information =========================================================================
   1               AFTabMod           - Interpolation method for multiple airfoil tables {1=1D interpolation on AoA (first table only); 2=2D interpolation on AoA and Re; 3=2D interpolation on AoA and UserProp} (-)
   1               InCol_Alfa         - The column in the airfoil tables that contains the angle of attack (-)
   2               InCol_Cl           - The column in the airfoil tables that contains the lift coefficient (-)
   3               InCol_Cd           - The column in the airfoil tables that contains the drag coefficient (-)
   4               InCol_Cm           - The column in the airfoil tables that contains the pitching-moment coefficient; use zero if there is no Cm column (-)
   0               InCol_Cpmin        - The column in the airfoil tables that contains the Cpmin coefficient; use zero if there is no Cpmin column (-)
   8               NumAFfiles         - Number of airfoil files used (-)
   "AeroData_15_3D/Cylinder.dat"   AFNames            - Airfoil file names (NumAFfiles lines) (quoted strings)
   "AeroData_15_3D/Cylinder_82%Thick_Interpolated.dat"
   "AeroData_15_3D/Cylinder_60%Thick_Interpolated.dat"
   "AeroData_15_3D/Cylinder_38%Thick_Interpolated.dat"
   "AeroData_15_3D/Cylinder_27%Thick_Interpolated.dat"
   "AeroData_15_3D/S821_3D.dat"
   "AeroData_15_3D/S819_3D.dat"
   "AeroData_15_3D/S820.dat"
======  Rotor/Blade Properties  =====================================================================
   True             UseBlCm            - Include aerodynamic pitching moment in calculations?  (flag)
   "UNIFI_50kW_Reference_SWT_ADyn15_Blade.dat" ADBlFile(1)        - Name of file containing distributed aerodynamic properties for Blade #1 (-)
   "UNIFI_50kW_Reference_SWT_ADyn15_Blade.dat" ADBlFile(2)        - Name of file containing distributed aerodynamic properties for Blade #2 (-) [unused if NumBl < 2]
   "UNIFI_50kW_Reference_SWT_ADyn15_Blade.dat" ADBlFile(3)        - Name of file containing distributed aerodynamic properties for Blade #3 (-) [unused if NumBl < 3]
======  Tower Influence and Aerodynamics ============================================================= [used only when TwrPotent/=0, TwrShadow=True, or TwrAero=True]
   23               NumTwrNds         - Number of tower nodes used in the analysis  (-) [used only when TwrPotent/=0, TwrShadow=True, or TwrAero=True]
TwrElev        TwrDiam        TwrCd
(m)              (m)           (-)
0               1.35          1.2 
2.42            1.34          1.2 
3.63            1.33          1.2 
4.84            1.32          1.2
4.85            1.32          1.2
6.05            1.31          1.2
7.26            1.3           1.2
8.47            1.29          1.15
9.68            1.28          1.1
10.89           1.27          1.05
10.9            1.27          1.05
12.1            1.26          1.0
13.31           1.25          0.9 
14.52           1.24          0.9
15.73           1.22          0.8
15.75           1.22          0.8
16.94           1.2           0.8
18.15           1.1           0.7
19.36           1             0.7
20.57           0.9           0.6
20.6            0.9           0.6
21.78           0.8           0.5
22.00           0.8           0.5
======  Outputs  ===================================================================================
 True              SumPrint            - Generate a summary file listing input options and interpolated properties to "<rootname>.AD.sum"?  (flag)
    9              NBlOuts             - Number of blade node outputs [0 - 9] (-)
 6, 10, 20, 30, 35, 40, 45, 50, 53        BlOutNd             - Blade nodes whose values will be output  (-)
    0              NTwOuts             - Number of tower node outputs [0 - 9]  (-)
 1, 2, 3, 4, 5     TwOutNd             - Tower nodes whose values will be output  (-)
                   OutList             - The next line(s) contains a list of output parameters.  See OutListParameters.xlsx for a listing of available output channels, (-)
"B1Azimuth"
"RtAeroCt"
"RtAeroCp"
"RtAeroPwr"
"RtTSR"
"B1N1Re"
"B1N2Re"
"B1N3Re"
"B1N4Re"
"B1N5Re"
"B1N6Re"
"B1N7Re"
"B1N8Re"
"B1N9Re"
"B1N1M"
"B1N2M"
"B1N3M"
"B1N4M"
"B1N5M"
"B1N6M"
"B1N7M"
"B1N8M"
"B1N9M"
"B1N1Theta"
"B1N2Theta"
"B1N3Theta"
"B1N4Theta"
"B1N5Theta"
"B1N6Theta"
"B1N7Theta"
"B1N8Theta"
"B1N9Theta"
"B1N1Cl"
"B1N2Cl"
"B1N3Cl"
"B1N4Cl"
"B1N5Cl"
"B1N6Cl"
"B1N7Cl"
"B1N8Cl"
"B1N9Cl"
"B1N1Cd"
"B1N2Cd"
"B1N3Cd"
"B1N4Cd"
"B1N5Cd"
"B1N6Cd"
"B1N7Cd"
"B1N8Cd"
"B1N9Cd"
"B1N1Fl"
"B1N2Fl"
"B1N3Fl"
"B1N4Fl"
"B1N5Fl"
"B1N6Fl"
"B1N7Fl"
"B1N8Fl"
"B1N9Fl"
"B1N1Fd"
"B1N2Fd"
"B1N3Fd"
"B1N4Fd"
"B1N5Fd"
"B1N6Fd"
"B1N7Fd"
"B1N8Fd"
"B1N9Fd"
"B1N1VRel"
"B1N2VRel"
"B1N3VRel"
"B1N4VRel"
"B1N5VRel"
"B1N6VRel"
"B1N7VRel"
"B1N8VRel"
"B1N9VRel"
"B1N1Alpha"
"B1N2Alpha"
"B1N3Alpha"
"B1N4Alpha"
"B1N5Alpha"
"B1N6Alpha"
"B1N7Alpha"
"B1N8Alpha"
"B1N9Alpha"
"B1N1Fx"
"B1N2Fx"
"B1N3Fx"
"B1N4Fx"
"B1N5Fx"
"B1N6Fx"
"B1N7Fx"
"B1N8Fx"
"B1N9Fx"
"B1N1Fy"
"B1N2Fy"
"B1N3Fy"
"B1N4Fy"
"B1N5Fy"
"B1N6Fy"
"B1N7Fy"
"B1N8Fy"
"B1N9Fy"
"B1N1Vindx"
"B1N2Vindx"
"B1N3Vindx"
"B1N4Vindx"
"B1N5Vindx"
"B1N6Vindx"
"B1N7Vindx"
"B1N8Vindx"
"B1N9Vindx"
"B1N1Vindy"
"B1N2Vindy"
"B1N3Vindy"
"B1N4Vindy"
"B1N5Vindy"
"B1N6Vindy"
"B1N7Vindy"
"B1N8Vindy"
"B1N9Vindy"
"B1N1AxInd"
"B1N2AxInd"
"B1N3AxInd"
"B1N4AxInd"
"B1N5AxInd"
"B1N6AxInd"
"B1N7AxInd"
"B1N8AxInd"
"B1N9AxInd"
"B1N1TnInd"
"B1N2TnInd"
"B1N3TnInd"
"B1N4TnInd"
"B1N5TnInd"
"B1N6TnInd"
"B1N7TnInd"
"B1N8TnInd"
"B1N9TnInd"
"B1N1Mm"
"B1N2Mm"
"B1N3Mm"
"B1N4Mm"
"B1N5Mm"
"B1N6Mm"
"B1N7Mm"
"B1N8Mm"
"B1N9Mm"
END of the AeroDyn input file (the word "END" must appear in the first 3 columns of this last line)
---------------------------------------------------------------------------------------				